@<TRIPOS>MOLECULE
GYS
   34    35     1     0     1
SMALL
USER_CHARGES
@<TRIPOS>ATOM
  1 C1          1.278752    0.370735   -0.200239 CC        1 GYS        0.0487 ****
  2 N2          0.008999    0.398920   -0.124802 NB        1 GYS       -0.2334 ****
  3 C3         -0.438872   -0.915179   -0.344724 CM        1 GYS       -0.0363 ****
  4 C4          0.749794   -1.774436   -0.556596 CC        1 GYS        0.4898 ****
  5 O5          0.842690   -2.948559   -0.765926 O         1 GYS       -0.5547 ****
  6 N6          1.804082   -0.887162   -0.449313 N         1 GYS       -0.0454 ****
  7 C7          3.189664   -1.258552   -0.642203 CT        1 GYS       -0.0667 ****
  8 H8          3.682182   -0.540194   -1.276294 H1        1 GYS        0.0584 ****
  9 H9          3.182143   -2.223064   -1.135677 H1        1 GYS        0.0584 ****
 10 C10         3.983054   -1.400373    0.652278 C         1 GYS        0.7123 ****
 11 O11         5.099090   -0.983708    0.705032 O         1 GYS       -0.5511 ****
 12 C12         2.166423    1.582644   -0.031599 CT        1 GYS        0.0821 ****
 13 H13         2.929595    1.329152    0.697747 H1        1 GYS        0.1553 ****
 14 N14         2.832845    1.841380   -1.296178 N         1 GYS       -0.5209 ****
 15 H15         2.199765    2.272764   -1.941248 H         1 GYS        0.3149 ****
 16 C16         1.373490    2.773529    0.517641 CT        1 GYS        0.0756 ****
 17 H17         2.048839    3.608649    0.645058 H1        1 GYS        0.0743 ****
 18 H18         0.614524    3.065372   -0.203120 H1        1 GYS        0.0743 ****
 19 O19         0.815421    2.511640    1.768162 OH        1 GYS       -0.6516 ****
 20 H20         0.098463    1.902151    1.645928 HO        1 GYS        0.4036 ****
 21 C21        -1.680327   -1.399638   -0.372647 CM        1 GYS       -0.0911 ****
 22 H22        -1.732250   -2.459900   -0.551974 HC        1 GYS        0.1311 ****
 23 C23        -2.967853   -0.729118   -0.197773 CA        1 GYS        0.0157 ****
 24 C24        -3.117147    0.656071   -0.043105 CA        1 GYS       -0.0724 ****
 25 H25        -2.248974    1.283553   -0.053930 HA        1 GYS        0.0951 ****
 26 C26        -4.120449   -1.509881   -0.190616 CA        1 GYS       -0.1354 ****
 27 H27        -4.039116   -2.575670   -0.311891 HA        1 GYS        0.1672 ****
 28 C28        -4.359978    1.223649    0.116552 CA        1 GYS       -0.2480 ****
 29 H29        -4.475191    2.284864    0.234031 HA        1 GYS        0.1866 ****
 30 C30        -5.375379   -0.951161   -0.028704 CA        1 GYS       -0.3067 ****
 31 H31        -6.250604   -1.578214   -0.024813 HA        1 GYS        0.1593 ****
 32 C32        -5.496567    0.420236    0.126182 C         1 GYS        0.3667 ****
 33 O33        -6.685699    1.030573    0.286632 OH        1 GYS       -0.6004 ****
 34 H34        -7.393414    0.400918    0.280200 HO        1 GYS        0.4447 ****
@<TRIPOS>BOND
    1     1     2 1
    2     1     6 1
    3     1    12 1
    4     2     3 1
    5     3     4 1
    6     3    21 1
    7     4     5 1
    8     4     6 1
    9     6     7 1
   10     7     8 1
   11     7     9 1
   12     7    10 1
   13    10    11 1
   14    12    13 1
   15    12    14 1
   16    12    16 1
   17    14    15 1
   18    16    17 1
   19    16    18 1
   20    16    19 1
   21    19    20 1
   22    21    22 1
   23    21    23 1
   24    23    24 1
   25    23    26 1
   26    24    25 1
   27    24    28 1
   28    26    27 1
   29    26    30 1
   30    28    29 1
   31    28    32 1
   32    30    31 1
   33    30    32 1
   34    32    33 1
   35    33    34 1
@<TRIPOS>SUBSTRUCTURE
      1  GYS              1 ****               0 ****  ****  


